Cases/test/data_old/branch_specific/scenario_results_case5.csv
line_id,y_cos_f_w1_vm_from,y_cos_f_w2_vm_to,y_cos_f_w3_theta_i,y_cos_f_w4_theta_j,y_cos_f_bias,y_sin_f_w1_vm_from,y_sin_f_w2_vm_to,y_sin_f_w3_theta_i,y_sin_f_w4_theta_j,y_sin_f_bias
1_2,0.17779393508915836,0.9973573863701644,-0.032144624802738095,-0.15526270904024492,-0.21354043661783106,0.4656838862719124,-0.0037647359135739022,-0.08513316084975564,-0.39193524109444783,-0.4645873658029822
1_4,0.4668466258478249,0.5243746746708556,-0.0852978898756301,-3.371123266144454e-35,0.013607042257287594,-0.06866104925419984,-0.07712193549614875,0.012545110736087889,4.9580493421874406e-36,0.22237203395524244
1_5,1.1120532340371463,0.8250653268363295,-0.1926527551433888,15.945778750456054,-2.0722863314105275,-0.07368519460207316,-0.07831577984362145,0.01330284865357964,-0.2389556481895862,0.17341251120491813
2_3,-0.0012027348933517507,2.0921056877427165e-09,-0.05978643917085446,-0.08044560330482244,1.1924660343309164,-0.0007950601717289507,5.120460248617946e-09,-0.14634444049875509,-0.19690822821229692,-0.005581450514027801
3_4,6.517239692360732e-09,0.24873943389576328,-0.2510982721729747,-1.599107152419108e-35,0.8857771468851474,-1.541730465515201e-08,-0.5884226786694311,0.5940027908208737,3.782877927189512e-35,0.6593940449375068
4_5,0.49312156039347277,0.5095161240342179,-3.17393324379064e-35,0.015951658188200817,-0.006331914793924032,-0.016686117059847766,-0.037857241274659094,1.9169517045986477e-36,-0.9985491265572328,0.05349443382828194
